Circuit: * D:\UTN\TC2\TC2\Ejercicio 4\circuito OTA1.asc

WARNING: Node X1:V2 is floating.

WARNING: Less than two connections to node X1:V2.  This node is used by C:X1:2.
Direct Newton iteration for .op point succeeded.
Ignoring empty pin current: Ix(x1:v-)
Ignoring empty pin current: Ix(x1:v-)

Date: Mon Apr 25 07:32:53 2022
Total elapsed time: 0.018 seconds.

tnom = 27
temp = 27
method = trap
totiter = 3
traniter = 0
tranpoints = 0
accept = 0
rejected = 0
matrix size = 7
fillins = 0
solver = Normal
Matrix Compiler1:      14 opcodes
Matrix Compiler2: 409 bytes object code size
