Circuit: * D:\UTN\TC2\TC2\Ejercicio 7\Ejercicio 7a\circuito1.asc

Ignoring empty pin current: Ix(u1:1)
Ignoring empty pin current: Ix(u1:2)

Date: Sat Apr 23 02:15:10 2022
Total elapsed time: 0.034 seconds.

tnom = 27
temp = 27
method = trap
totiter = 0
traniter = 0
tranpoints = 0
accept = 0
rejected = 0
matrix size = 5
fillins = 1
solver = Normal

