Circuit: * D:\UTN\TC2\TC2\Ejercicio 7\Ejercicio 7a\Draft1.asc

Direct Newton iteration for .op point succeeded.

Date: Sat Apr 23 11:21:24 2022
Total elapsed time: 0.016 seconds.

tnom = 27
temp = 27
method = trap
totiter = 3
traniter = 0
tranpoints = 0
accept = 0
rejected = 0
matrix size = 3
fillins = 0
solver = Normal
Matrix Compiler1:       4 opcodes
Matrix Compiler2: 149 bytes object code size
